@<TRIPOS>MOLECULE
gdb_1
5 4 0 0 0

@<TRIPOS>ATOM
    1 C                -0.0000   0.0000  -0.0000 C.3    1 LIG1    -0.0776
    2 H                 0.2350   0.9700   0.4367 H      1 LIG1     0.0194
    3 H                 0.0188  -0.7626   0.7778 H      1 LIG1     0.0194
    4 H                -0.9914   0.0350  -0.4503 H      1 LIG1     0.0194
    5 H                 0.7376  -0.2425  -0.7642 H      1 LIG1     0.0194

@<TRIPOS>BOND
    1 1 2 1
    2 1 3 1
    3 1 4 1
    4 1 5 1
