@<TRIPOS>MOLECULE
gdb_3
3 2 0 0 0

@<TRIPOS>ATOM
    1 O                 0.0000   0.1109   0.0000 O.3    1 LIG1    -0.4105
    2 H                 0.7979  -0.4435   0.0000 H      1 LIG1     0.2052
    3 H                -0.7979  -0.4435   0.0000 H      1 LIG1     0.2052

@<TRIPOS>BOND
    1 1 2 1
    2 1 3 1
