@<TRIPOS>MOLECULE
gdb_2
4 3 0 0 0

@<TRIPOS>ATOM
    1 N                -0.0000  -0.0000  -0.0614 N.3    1 LIG1    -0.3437
    2 H                 0.8482  -0.4988   0.1433 H      1 LIG1     0.1146
    3 H                -0.8561  -0.4851   0.1433 H      1 LIG1     0.1146
    4 H                 0.0079   0.9840   0.1433 H      1 LIG1     0.1146

@<TRIPOS>BOND
    1 1 2 1
    2 1 3 1
    3 1 4 1
