@<TRIPOS>MOLECULE
gdb_000214
12 12 0 0 0

@<TRIPOS>ATOM
    1 C                 1.3941  -0.1164  -0.0000 C.ar   1 LIG1    -0.1971
    2 C                 0.7978   1.1491   0.0000 C.ar   1 LIG1    -0.1971
    3 C                -0.5962   1.2654  -0.0000 C.ar   1 LIG1    -0.1971
    4 C                -1.3941   0.1164   0.0000 C.ar   1 LIG1    -0.1971
    5 C                -0.7978  -1.1491  -0.0000 C.ar   1 LIG1    -0.1971
    6 C                 0.5962  -1.2654   0.0000 C.ar   1 LIG1    -0.1971
    7 H                 2.4728  -0.2065  -0.0000 H      1 LIG1     0.1971
    8 H                 1.4151   2.0383   0.0000 H      1 LIG1     0.1971
    9 H                -1.0576   2.2446   0.0000 H      1 LIG1     0.1971
    10 H                -2.4728   0.2065   0.0000 H      1 LIG1     0.1971
    11 H                -1.4151  -2.0383  -0.0000 H      1 LIG1     0.1971
    12 H                 1.0576  -2.2446   0.0000 H      1 LIG1     0.1971

@<TRIPOS>BOND
    1 1 2 ar
    2 1 6 ar
    3 1 7 1
    4 2 3 ar
    5 2 8 1
    6 3 4 ar
    7 3 9 1
    8 4 5 ar
    9 4 10 1
    10 5 6 ar
    11 5 11 1
    12 6 12 1
